src/test/resources/pst_special/process2/padricianoOutage/20260620_1130_2D1_SI0.UCT
##C 2007.05.01
##N
##ZSI
LOKROG1  OKROGLO      0 0          431.2    57.8     3.4     8.2     7.3     6.9     4.6     5.3   0.9     1.6     7.2          
LBERIC1  BERICEVO     0 0            3.8     3.9     6.9     8.3     2.8     2.1     1.4     2.2   1.5     3.9     6.6          
LBERIC2  BERICEVO     0 0           96.7    26.2     4.9     9.4     2.1     9.9     7.9     4.9   9.1     0.7     0.3          
LDIVAC11 DIVACA       0 0            8.2     8.0     6.7     4.1     0.5     6.3     0.4     4.1   0.7     6.1     9.2          
LDIVAC21 DIVACA       0 0            0.4     4.7     1.4     8.7     5.9     2.4     3.6     1.6   6.3     9.4     4.3          
LDIVAC22 DIVACA       0 0            7.8     6.0     5.8     4.9     7.2     6.4     6.9     9.3   6.9     6.3     8.9          
LDIVAC12 LDIVAC12     0 0            4.7     4.1     0.9     7.3     5.9     2.1     8.6     9.9   6.3     0.3     3.2          
LDIVAC51 LDIVAC51     0 0           98.5     6.0     9.2     5.6     4.5     2.3     9.8     4.9   3.2     8.9     2.6         
LKLECE2  KLECE        0 0           38.1   -42.7     5.3     2.4     2.7     9.4     5.8     7.9   5.4     9.8     7.1          
LKRSKO1  KRSKO        0 3  668.8    06.9   -52.4  -996.0     1.6     1.8  -243.1   020.8  -143.3   4.2     6.2     7.1         N
LPODLO1  PODLOG       0 0           66.3    92.2     3.9     9.0     9.9     0.1     4.2     7.0   7.8     7.3     4.2         
LPODLO21 PODLOG       0 0  965.0   264.2    46.4     7.1    -9.2     8.7  -485.4    48.6  -133.2   1.0     1.8     9.2         L
##ZXX
XPA_DI21 PADRICIANO   0 0            3.2    96.2     4.6     1.8     5.6     4.9     7.4     8.7   4.9     1.4     4.6         
XRE_DI11 REDIPUGLIA   0 2  261.9     3.0   -32.3     4.8     8.8     4.0     8.0   870.8  -124.1   1.1     8.9     9.1         
XME_DI11 MELINA       0 2  275.2  -731.0   -38.0     8.9     7.2     0.0     2.2     5.3     0.5   4.3     6.2     3.5         
XPE_DI21 PEHLIN       0 0          -51.6   -80.1     4.2     7.5     3.8     6.6     6.1     0.2   8.3     6.2     6.4         
##L
LDIVAC22 XPA_DI21 1 0 8.638  5.097   48.016 960
LDIVAC12 XRE_DI11 1 0 8.480  4.342   62.311 2700
LDIVAC11 XME_DI11 1 0 2.43   37.306  542.46 1920
LDIVAC22 XPE_DI21 1 0 5.63   64.581  65.967 960
LBERIC1  LPODLO1  1 0 6.142  82.883  396.38 1920
LBERIC2  LKLECE2  1 0 0.658  3.427   04.258 960
LDIVAC11 LBERIC1  1 0 4.996  43.356  995.26 1920
LDIVAC21 LKLECE2  1 0 3.936  12.070  246.29 960
LPODLO21 LBERIC2  1 0 7.743  27.631  131.24 960
LOKROG1  LBERIC1  1 0 4.347  5.588   87.940 1600
LOKROG1  LBERIC1  2 0 1.071  5.053   52.785 1600
LBERIC1  LKRSKO1  1 0 1.888  11.79   112.88 1920
LBERIC1  LKRSKO1  2 0 3.171  44.97   511.20 1920
LDIVAC21 LDIVAC22 1 2 7.48   1.39    4.2    9999
LDIVAC12 LDIVAC11 2 7 2.11   8.60    8.6    9999
LBERIC2  LPODLO21 2 1 6.62   54.07   521.83 640
LBERIC2  LKLECE2  2 1 1.25   50.00   432.4  640
##T
LBERIC1  LBERIC2  1 0 399.6 339.6 400   9.25   80.596 -02.608  7.122
LDIVAC11 LDIVAC12 1 0 261.5 308.1 1200  3.34   42.289 -1.459   8.137
LDIVAC51 LDIVAC11 1 0 631.9 088.4 300   4.0963 6.543  -392.380 68.418
LDIVAC51 LDIVAC21 1 0 690.7 884.8 150   9.982  02.310 -03.5140 0.7800
LDIVAC51 LDIVAC21 2 0 861.8 184.0 150   7.953  19.587 -98.8440 0.3295
##R
LDIVAC11 LDIVAC12 1     0  0   0     0  0.32    90 32   0     1 SYMM
LDIVAC51 LDIVAC11 1   5.1 12  -1     0                          
LDIVAC51 LDIVAC21 1   4.8 12  -1     0                          
LDIVAC51 LDIVAC21 2   1.9 12  -1     0                          
